
 **************************************************************************************************
 OpenFAST

 Copyright (C) 2022 National Renewable Energy Laboratory
 Copyright (C) 2022 Envision Energy USA LTD

 This program is licensed under Apache License Version 2.0 and comes with ABSOLUTELY NO WARRANTY.
 See the "LICENSE" file distributed with this software for details.
 **************************************************************************************************

 OpenFAST-v3.1.0-143-gaeb6c43f-dirty
 Compile Info:
  - Compiler: GCC version 10.3.0
  - Architecture: 64 bit
  - Precision: double
  - OpenMP: No
  - Date: May 17 2022
  - Time: 14:55:58
 Execution Info:
  - Date: 05/17/2022
  - Time: 15:23:41-0500

 OpenFAST input file heading:
     FAST Certification Test #08: AOC 15/50 with many DOFs with fixed yaw error and steady wind.
     Many parameters are pure fiction.

 Running ElastoDyn.
 Nodal outputs section of ElastoDyn input file not found or improperly formatted.
 Running AeroDyn.
 AD15 Nodal Outputs: Nodal output section of AeroDyn input file not found or improperly formatted.
 Skipping nodal outputs.
 Running InflowWind.
 Running ServoDyn.
  Time: 0 of 20 seconds.

 FAST_Solution:CalcOutputs_And_SolveForInputs:SolveOption2:RotCalcOutput:BEMT_CalcOutput(node 1,
 blade 1):UA_CalcOutput:UA_BlendSteady:Temporarily turning off UA due to high angle of attack or
 low relative velocity. This warning will not be repeated though the condition may persist.

                                                                                                   Time: 5 of 20 seconds.  Estimated final completion at 15:24:04.                                                                                                                                     Time: 10 of 20 seconds.  Estimated final completion at 15:24:09.                                                                                                                                    Time: 15 of 20 seconds.  Estimated final completion at 15:24:14.                                                                                                                                    Time: 20 of 20 seconds.  Estimated final completion at 15:24:18.                                                                                                                                   
  Total Real Time:       36.987 seconds
  Total CPU Time:        36.718 seconds
  Simulation CPU Time:   36.685 seconds
  Simulated Time:        20 seconds
  Time Ratio (Sim/CPU):  0.54518

  OpenFAST terminated normally.

