
 **************************************************************************************************
 OpenFAST

 Copyright (C) 2022 National Renewable Energy Laboratory
 Copyright (C) 2022 Envision Energy USA LTD

 This program is licensed under Apache License Version 2.0 and comes with ABSOLUTELY NO WARRANTY.
 See the "LICENSE" file distributed with this software for details.
 **************************************************************************************************

 OpenFAST-v3.1.0-143-gaeb6c43f-dirty
 Compile Info:
  - Compiler: GCC version 10.3.0
  - Architecture: 64 bit
  - Precision: double
  - OpenMP: No
  - Date: May 17 2022
  - Time: 14:55:58
 Execution Info:
  - Date: 05/17/2022
  - Time: 15:24:12-0500

 OpenFAST input file heading:
     Elliptical wing test case for OLAF free vortex wake in AD15

 Running ElastoDyn.
 Nodal outputs section of ElastoDyn input file not found or improperly formatted.
 Running AeroDyn.
 Running OLAF.
  - Directory:         /Users/rmudafor/Development/openfast/build/reg_tests
  - RootName:
  /Users/rmudafor/Development/openfast/build/reg_tests/glue-codes/openfast/EllipticalWing_OLAF/Elli
  pticalWing_OLAF.
  - No OpenMP support
  - OLAF regularization parameters (for wing 1):
    BladeReg (min/max):   0.0010  0.0010
    WakeReg (min/max) :   0.0010  0.0010
    k = alpha delta nu:   0.0018
 Running InflowWind.

 FAST_InitializeAll: IfW_Init:IfW_UniformWind_Init: Could not read upflow column in uniform wind
 files. Assuming upflow is 0.

  Time: 0 of 500 seconds.
                                                                                                   Time: 100 of 500 seconds.  Estimated final completion at 15:24:13.                                                                                                                                  Time: 200 of 500 seconds.  Estimated final completion at 15:24:13.                                                                                                                                  Time: 300 of 500 seconds.  Estimated final completion at 15:24:13.                                                                                                                                  Time: 400 of 500 seconds.  Estimated final completion at 15:24:13.                                                                                                                                  Time: 500 of 500 seconds.  Estimated final completion at 15:24:13.                                                                                                                                 
  Total Real Time:       0.213 seconds
  Total CPU Time:        0.21022 seconds
  Simulation CPU Time:   0.15556 seconds
  Simulated Time:        500 seconds
  Time Ratio (Sim/CPU):  3214.2

  OpenFAST terminated normally.

