
 **************************************************************************************************
 OpenFAST

 Copyright (C) 2022 National Renewable Energy Laboratory
 Copyright (C) 2022 Envision Energy USA LTD

 This program is licensed under Apache License Version 2.0 and comes with ABSOLUTELY NO WARRANTY.
 See the "LICENSE" file distributed with this software for details.
 **************************************************************************************************

 OpenFAST-v3.1.0-143-gaeb6c43f-dirty
 Compile Info:
  - Compiler: GCC version 10.3.0
  - Architecture: 64 bit
  - Precision: double
  - OpenMP: No
  - Date: May 17 2022
  - Time: 14:55:58
 Execution Info:
  - Date: 05/17/2022
  - Time: 15:23:41-0500

 OpenFAST input file heading:
     FAST Certification Test #13: WindPACT 1.5 MW Baseline with many DOFs with VS and VP and FF
     turbulence.

 Running ElastoDyn.
 Nodal outputs section of ElastoDyn input file not found or improperly formatted.
 Running AeroDyn.
 AD15 Nodal Outputs: Nodal output section of AeroDyn input file not found or improperly formatted.
 Skipping nodal outputs.
 Warning: Turning off Unsteady Aerodynamics because UA parameters are not included in airfoil
 (airfoil has likely has constant polars). (node 1, blade 1)
 Warning: Turning off Unsteady Aerodynamics because UA parameters are not included in airfoil
 (airfoil has likely has constant polars). (node 2, blade 1)
 Warning: Turning off Unsteady Aerodynamics because UA parameters are not included in airfoil
 (airfoil has likely has constant polars). (node 1, blade 2)
 Warning: Turning off Unsteady Aerodynamics because UA parameters are not included in airfoil
 (airfoil has likely has constant polars). (node 2, blade 2)
 Warning: Turning off Unsteady Aerodynamics because UA parameters are not included in airfoil
 (airfoil has likely has constant polars). (node 1, blade 3)
 Warning: Turning off Unsteady Aerodynamics because UA parameters are not included in airfoil
 (airfoil has likely has constant polars). (node 2, blade 3)
 Running InflowWind.

    Reading a 7x7 grid (84 m wide, 42.288 m to 126.29 m above ground) with a characteristic wind
    speed of 12 m/s.

    Processed 940 time steps of 20-Hz full-field data (46.95 seconds).
 Running ServoDyn.
  Time: 0 of 40 seconds.
                                                                                                   Time: 1 of 40 seconds.  Estimated final completion at 15:24:33.                                                                                                                                     Time: 2 of 40 seconds.  Estimated final completion at 15:24:26.                                                                                                                                     Time: 3 of 40 seconds.  Estimated final completion at 15:24:24.                                                                                                                                     Time: 4 of 40 seconds.  Estimated final completion at 15:24:27.                                  
 ***********************************************
 Running with control option using data from:
  Speed controller for ADAMS WindPACT 15A1001 model April, 2002.
 ***********************************************

                                                                                                   Time: 5 of 40 seconds.  Estimated final completion at 15:24:27.                                  
 FAST_Solution:CalcOutputs_And_SolveForInputs:SolveOption2:RotCalcOutput:BEMT_CalcOutput(node 3,
 blade 1):UA_CalcOutput:UA_BlendSteady:Temporarily turning off UA due to high angle of attack or
 low relative velocity. This warning will not be repeated though the condition may persist.

                                                                                                   Time: 6 of 40 seconds.  Estimated final completion at 15:24:30.                                                                                                                                     Time: 7 of 40 seconds.  Estimated final completion at 15:24:34.                                                                                                                                     Time: 8 of 40 seconds.  Estimated final completion at 15:24:40.                                                                                                                                     Time: 9 of 40 seconds.  Estimated final completion at 15:24:43.                                                                                                                                     Time: 10 of 40 seconds.  Estimated final completion at 15:24:50.                                                                                                                                    Time: 11 of 40 seconds.  Estimated final completion at 15:24:50.                                                                                                                                    Time: 12 of 40 seconds.  Estimated final completion at 15:24:52.                                                                                                                                    Time: 13 of 40 seconds.  Estimated final completion at 15:24:55.                                                                                                                                    Time: 14 of 40 seconds.  Estimated final completion at 15:24:58.                                                                                                                                    Time: 15 of 40 seconds.  Estimated final completion at 15:25:07.                                                                                                                                    Time: 16 of 40 seconds.  Estimated final completion at 15:25:09.                                                                                                                                    Time: 17 of 40 seconds.  Estimated final completion at 15:25:13.                                                                                                                                    Time: 18 of 40 seconds.  Estimated final completion at 15:25:16.                                                                                                                                    Time: 19 of 40 seconds.  Estimated final completion at 15:25:30.                                                                                                                                    Time: 20 of 40 seconds.  Estimated final completion at 15:25:29.                                                                                                                                    Time: 21 of 40 seconds.  Estimated final completion at 15:25:22.                                                                                                                                    Time: 22 of 40 seconds.  Estimated final completion at 15:25:30.                                                                                                                                    Time: 23 of 40 seconds.  Estimated final completion at 15:25:33.                                                                                                                                    Time: 24 of 40 seconds.  Estimated final completion at 15:25:30.                                                                                                                                    Time: 25 of 40 seconds.  Estimated final completion at 15:25:34.                                                                                                                                    Time: 26 of 40 seconds.  Estimated final completion at 15:25:32.                                                                                                                                    Time: 27 of 40 seconds.  Estimated final completion at 15:25:35.                                                                                                                                    Time: 28 of 40 seconds.  Estimated final completion at 15:25:36.                                                                                                                                    Time: 29 of 40 seconds.  Estimated final completion at 15:25:35.                                                                                                                                    Time: 30 of 40 seconds.  Estimated final completion at 15:25:36.                                                                                                                                    Time: 31 of 40 seconds.  Estimated final completion at 15:25:37.                                                                                                                                    Time: 32 of 40 seconds.  Estimated final completion at 15:25:37.                                                                                                                                    Time: 33 of 40 seconds.  Estimated final completion at 15:25:35.                                                                                                                                    Time: 34 of 40 seconds.  Estimated final completion at 15:25:36.                                                                                                                                    Time: 35 of 40 seconds.  Estimated final completion at 15:25:35.                                                                                                                                    Time: 36 of 40 seconds.  Estimated final completion at 15:25:36.                                                                                                                                    Time: 37 of 40 seconds.  Estimated final completion at 15:25:36.                                                                                                                                    Time: 38 of 40 seconds.  Estimated final completion at 15:25:36.                                                                                                                                    Time: 39 of 40 seconds.  Estimated final completion at 15:25:35.                                                                                                                                    Time: 40 of 40 seconds.  Estimated final completion at 15:25:35.                                                                                                                                   
  Total Real Time:       1.9013 minutes
  Total CPU Time:        1.8911 minutes
  Simulation CPU Time:   1.8903 minutes
  Simulated Time:        0.66667 minutes
  Time Ratio (Sim/CPU):  0.35268

  OpenFAST terminated normally.

