
 **************************************************************************************************
 OpenFAST

 Copyright (C) 2022 National Renewable Energy Laboratory
 Copyright (C) 2022 Envision Energy USA LTD

 This program is licensed under Apache License Version 2.0 and comes with ABSOLUTELY NO WARRANTY.
 See the "LICENSE" file distributed with this software for details.
 **************************************************************************************************

 OpenFAST-v3.1.0-143-gaeb6c43f-dirty
 Compile Info:
  - Compiler: GCC version 10.3.0
  - Architecture: 64 bit
  - Precision: double
  - OpenMP: No
  - Date: May 17 2022
  - Time: 14:55:58
 Execution Info:
  - Date: 05/17/2022
  - Time: 15:23:41-0500

 OpenFAST input file heading:
     FAST Certification Test #05: AWT-27CR2 with many DOFs with startup and shutdown and FF
     turbulence.

 Running ElastoDyn.
 Nodal outputs section of ElastoDyn input file not found or improperly formatted.
 Running AeroDyn.
 AD15 Nodal Outputs: Nodal output section of AeroDyn input file not found or improperly formatted.
 Skipping nodal outputs.
 Running InflowWind.
 Running ServoDyn.

 FAST_InitializeAll: IfW_Init:IfW_UniformWind_Init: Could not read upflow column in uniform wind
 files. Assuming upflow is 0.

  Time: 0 of 30 seconds.
 The BEM solution is being turned off due to low TSR.  (TSR = 0). This warning will not be
 repeated though the condition may persist. (See GeomPhi output channel.)
                                                                                                   Time: 1 of 30 seconds.  Estimated final completion at 15:24:08.                                                                                                                                     Time: 2 of 30 seconds.  Estimated final completion at 15:24:09.                                                                                                                                     Time: 3 of 30 seconds.  Estimated final completion at 15:24:03.                                                                                                                                     Time: 4 of 30 seconds.  Estimated final completion at 15:24:04.                                                                                                                                     Time: 5 of 30 seconds.  Estimated final completion at 15:24:07.                                                                                                                                     Time: 6 of 30 seconds.  Estimated final completion at 15:24:05.                                                                                                                                     Time: 7 of 30 seconds.  Estimated final completion at 15:24:07.                                                                                                                                     Time: 8 of 30 seconds.  Estimated final completion at 15:24:07.                                                                                                                                     Time: 9 of 30 seconds.  Estimated final completion at 15:24:08.                                                                                                                                     Time: 10 of 30 seconds.  Estimated final completion at 15:24:09.                                                                                                                                    Time: 11 of 30 seconds.  Estimated final completion at 15:24:11.                                                                                                                                    Time: 12 of 30 seconds.  Estimated final completion at 15:24:14.                                                                                                                                    Time: 13 of 30 seconds.  Estimated final completion at 15:24:14.                                                                                                                                    Time: 14 of 30 seconds.  Estimated final completion at 15:24:16.                                                                                                                                    Time: 15 of 30 seconds.  Estimated final completion at 15:24:15.                                                                                                                                    Time: 16 of 30 seconds.  Estimated final completion at 15:24:17.                                                                                                                                    Time: 17 of 30 seconds.  Estimated final completion at 15:24:16.                                                                                                                                    Time: 18 of 30 seconds.  Estimated final completion at 15:24:17.                                                                                                                                    Time: 19 of 30 seconds.  Estimated final completion at 15:24:18.                                                                                                                                    Time: 20 of 30 seconds.  Estimated final completion at 15:24:18.                                                                                                                                    Time: 21 of 30 seconds.  Estimated final completion at 15:24:22.                                                                                                                                    Time: 22 of 30 seconds.  Estimated final completion at 15:24:22.                                                                                                                                    Time: 23 of 30 seconds.  Estimated final completion at 15:24:22.                                                                                                                                    Time: 24 of 30 seconds.  Estimated final completion at 15:24:22.                                                                                                                                    Time: 25 of 30 seconds.  Estimated final completion at 15:24:23.                                                                                                                                    Time: 26 of 30 seconds.  Estimated final completion at 15:24:25.                                                                                                                                    Time: 27 of 30 seconds.  Estimated final completion at 15:24:25.                                                                                                                                    Time: 28 of 30 seconds.  Estimated final completion at 15:24:25.                                                                                                                                    Time: 29 of 30 seconds.  Estimated final completion at 15:24:25.                                                                                                                                    Time: 30 of 30 seconds.  Estimated final completion at 15:24:25.                                                                                                                                   
  Total Real Time:       43.261 seconds
  Total CPU Time:        42.97 seconds
  Simulation CPU Time:   42.89 seconds
  Simulated Time:        30.004 seconds
  Time Ratio (Sim/CPU):  0.69956

  OpenFAST terminated normally.

