
 **************************************************************************************************
 OpenFAST

 Copyright (C) 2022 National Renewable Energy Laboratory
 Copyright (C) 2022 Envision Energy USA LTD

 This program is licensed under Apache License Version 2.0 and comes with ABSOLUTELY NO WARRANTY.
 See the "LICENSE" file distributed with this software for details.
 **************************************************************************************************

 OpenFAST-v3.1.0-143-gaeb6c43f-dirty
 Compile Info:
  - Compiler: GCC version 10.3.0
  - Architecture: 64 bit
  - Precision: double
  - OpenMP: No
  - Date: May 17 2022
  - Time: 14:55:58
 Execution Info:
  - Date: 05/17/2022
  - Time: 15:23:41-0500

 OpenFAST input file heading:
     FAST Certification Test #07: AOC 15/50 with many DOFs with free yaw and FF turbulence. Many
     parameters are pure fiction.

 Running ElastoDyn.
 Nodal outputs section of ElastoDyn input file not found or improperly formatted.
 Running AeroDyn.
 AD15 Nodal Outputs: Nodal output section of AeroDyn input file not found or improperly formatted.
 Skipping nodal outputs.
 Running InflowWind.

    Reading a 6x6 grid (18 m wide, 16 m to 34 m above ground) with a characteristic wind speed of
    12 m/s.

    Processed 1430 time steps of 20-Hz full-field data (71.45 seconds).
 Running ServoDyn.
  Time: 0 of 70 seconds.

 FAST_Solution:CalcOutputs_And_SolveForInputs:SolveOption2:RotCalcOutput:BEMT_CalcOutput(node 1,
 blade 1):UA_CalcOutput:UA_BlendSteady:Temporarily turning off UA due to high angle of attack or
 low relative velocity. This warning will not be repeated though the condition may persist.

                                                                                                   Time: 5 of 70 seconds.  Estimated final completion at 15:24:60.                                                                                                                                     Time: 10 of 70 seconds.  Estimated final completion at 15:25:21.                                                                                                                                    Time: 15 of 70 seconds.  Estimated final completion at 15:25:53.                                                                                                                                    Time: 20 of 70 seconds.  Estimated final completion at 15:26:44.                                                                                                                                    Time: 25 of 70 seconds.  Estimated final completion at 15:27:08.                                                                                                                                    Time: 30 of 70 seconds.  Estimated final completion at 15:27:23.                                                                                                                                    Time: 35 of 70 seconds.  Estimated final completion at 15:27:27.                                                                                                                                    Time: 40 of 70 seconds.  Estimated final completion at 15:27:24.                                                                                                                                    Time: 45 of 70 seconds.  Estimated final completion at 15:27:14.                                                                                                                                    Time: 50 of 70 seconds.  Estimated final completion at 15:27:04.                                                                                                                                    Time: 55 of 70 seconds.  Estimated final completion at 15:26:58.                                                                                                                                    Time: 60 of 70 seconds.  Estimated final completion at 15:26:54.                                                                                                                                    Time: 65 of 70 seconds.  Estimated final completion at 15:26:54.                                                                                                                                    Time: 70 of 70 seconds.  Estimated final completion at 15:26:53.                                                                                                                                   
  Total Real Time:       3.1997 minutes
  Total CPU Time:        3.1863 minutes
  Simulation CPU Time:   3.1854 minutes
  Simulated Time:        1.1667 minutes
  Time Ratio (Sim/CPU):  0.36626

  OpenFAST terminated normally.

